 # Positions of grains centers of mass
 CRYSTAL
 PRIMVEC
     50.00000000        0.00000000        0.00000000
      0.00000000       50.00000000        0.00000000
      0.00000000        0.00000000       50.00000000
 CONVVEC
     50.00000000        0.00000000        0.00000000
      0.00000000       50.00000000        0.00000000
      0.00000000        0.00000000       50.00000000
 PRIMCOORD
        3 1
1       27.30958701       25.25811365       29.10932711
1       27.87306992       24.85648004       28.88901563
1       26.07127664       25.36621555       29.50281226
