 # Positions of nodes
 CRYSTAL
 PRIMVEC
     50.00000000        0.00000000        0.00000000
      0.00000000       50.00000000        0.00000000
      0.00000000        0.00000000       50.00000000
 CONVVEC
     50.00000000        0.00000000        0.00000000
      0.00000000       50.00000000        0.00000000
      0.00000000        0.00000000       50.00000000
 PRIMCOORD
        3 1
1       14.39388537        4.72051853       40.32065727
1       27.65184114       49.17581259       47.06853857
1       48.69590333       47.23182930        1.63984077
